single-line-diagram/single-line-diagram-core/src/test/resources/network_common_methods_createLine_TT.xiidm
<?xml version="1.0" encoding="UTF-8"?>
<iidm:network xmlns:iidm="http://www.powsybl.org/schema/iidm/1_10" xmlns:cp="http://www.powsybl.org/schema/iidm/ext/connectable_position/1_1" id="test" caseDate="2023-07-20T14:56:50.426+02:00" forecastDistance="0" sourceFormat="test" minimumValidationLevel="STEADY_STATE_HYPOTHESIS">
    <iidm:substation id="ST" name="SUBSTATION" country="FR">
        <iidm:voltageLevel id="VL1" nominalV="400.0" topologyKind="NODE_BREAKER">
            <iidm:nodeBreakerTopology>
                <iidm:busbarSection id="VL1_BBS" node="0"/>
                <iidm:switch id="VL1_B1" kind="BREAKER" retained="false" open="false" node1="1" node2="2"/>
                <iidm:switch id="VL1_D1" kind="DISCONNECTOR" retained="false" open="false" node1="0" node2="2"/>
                <iidm:switch id="NL_VL1 COUPL DJ" kind="BREAKER" retained="true" open="false" node1="3" node2="4"/>
                <iidm:switch id="NL_VL1_DISCONNECTOR" kind="DISCONNECTOR" retained="false" open="false" node1="4" node2="0"/>
            </iidm:nodeBreakerTopology>
            <iidm:generator id="G1" energySource="OTHER" minP="0.0" maxP="10.0" voltageRegulatorOn="true" targetP="0.0" targetV="400.0" node="1">
                <iidm:minMaxReactiveLimits minQ="-1.7976931348623157E308" maxQ="1.7976931348623157E308"/>
            </iidm:generator>
        </iidm:voltageLevel>
        <iidm:voltageLevel id="VL2" nominalV="400.0" topologyKind="NODE_BREAKER">
            <iidm:nodeBreakerTopology>
                <iidm:busbarSection id="VL2_BBS" node="0"/>
                <iidm:switch id="NL_VL2 COUPL DJ" kind="BREAKER" retained="true" open="false" node1="1" node2="2"/>
                <iidm:switch id="NL_VL2_DISCONNECTOR" kind="DISCONNECTOR" retained="false" open="false" node1="2" node2="0"/>
            </iidm:nodeBreakerTopology>
        </iidm:voltageLevel>
    </iidm:substation>
    <iidm:line id="NL" name="NEWLINE" r="1234.5" x="1.0" g1="220.0" b1="220.0" g2="600.3" b2="600.3" node1="3" voltageLevelId1="VL1" node2="1" voltageLevelId2="VL2"/>
    <iidm:extension id="NL">
        <cp:position>
            <cp:feeder1 name="NL_VL1" order="5" direction="TOP"/>
            <cp:feeder2 name="NL_VL2" order="15" direction="TOP"/>
        </cp:position>
    </iidm:extension>
</iidm:network>
